%mem = 4GB
%nproc = 4
%chk = C2H6.chk
#p PBE1PBE TD(Nstates=8) em=GD3BJ def2SVP guess=Huckel scrf(SMD,read,solvent=generic)

Generated by autoGau.

0 1
C     -2.80255000     0.73828000    -0.00007000
C     -1.28357000     0.71234000    -0.00003000
H     -3.18617000     0.32139000     0.95491000
H     -3.18939000     0.12944000    -0.84424000
H     -3.16117000     1.78329000    -0.11092000
H     -0.92494000    -0.33267000     0.11081000
H     -0.89672000     1.32119000     0.84414000
H     -0.89996000     1.12924000    -0.95501000

eps=11.5
epsinf=2.0449
HBondAcidity=0.229
HBondBasicity=0.265
SurfaceTensionAtInterface=61.24
CarbonAromaticity=0.12
ElectronegativeHalogenicity=0.24


