%chk = 111.chk
%mem = 2GB
%nproc = 2
#p opt(TS,calcfc,noeigen) freq B3LYP em=GD3BJ 6-311+G(d,p)

Generated by autoGau.

0 1
C     -1.31178000     2.50412000     0.00000000
C     -2.50618000     1.77660000     0.00000000
C     -2.47333000     0.37847000     0.00000000
C     -1.24608000    -0.29215000     0.00000000
C     -0.05167000     0.43537000     0.00000000
C     -0.08452000     1.83351000     0.00000000
H     -1.40277000     3.42398000     0.00000000
H     -3.42381000     2.26667000     0.00000000
H     -3.37796000    -0.09852000     0.00000000
H     -1.13281000    -1.26106000     0.00000000
H      0.81212000    -0.02097000     0.00000000
H      0.86568000     2.30221000     0.00000000




